New England/MatPower Cases/Medium/Summer69Tight.m
% Case saved by PowerWorld Simulator, version 19, build date July 14, 2016
function mpc = summer69_1
mpc.version = '2';
mpc.baseMVA =  100.00;

%% bus data 
mpc.bus = [
      1 2      0.00     0.00      0.00     0.00    1 1.0200000    11.14504  345.00   1   1.060   1.000    28.61     0.00 0  0
      2 1    112.38    37.54      0.00     0.00    1 1.0080792   -11.99086  345.00   1   1.040   0.950    28.60    -0.01 0  0
      3 2      0.00     0.00      0.00     0.00    1 1.0200000     4.18790  138.00   1   1.060   1.000    26.44     0.00 0  0
      4 1     87.55    26.86      0.00     0.00    1 0.9677274    -9.28076  138.00   1   1.040   0.950    28.86    -0.02 0  0
      5 1    109.30    40.96      0.00     0.00    1 0.9873309    -4.77861  230.00   1   1.040   0.950    28.86    -0.00 0  0
      6 1    102.05    33.37      0.00     0.00    1 1.0012160    -5.81229  138.00   1   1.040   0.950    28.85     0.00 0  0
      7 2    172.77    62.18      0.00     0.00    1 1.0200000     2.09981  138.00   1   1.060   1.000    28.86     0.00 0  0
      8 2    132.47    41.05      0.00     0.00    1 1.0200000     1.30865  230.00   1   1.060   1.000    28.86     0.00 0  0
      9 1      0.00     0.00      0.00     0.00    1 1.0265513    -0.02094  345.00   1   1.040   0.950    28.86    -0.00 0  0
     10 3    100.95    34.84      0.00     0.00    1 1.0200000     0.00000  138.00   1   1.060   1.000    28.86     0.00 0  0
     11 1      0.00     0.00      0.00     0.00    1 1.0160083    -0.96977  138.00   1   1.040   0.950    28.86     0.00 0  0
     12 1      3.01     1.16      0.00     0.00    1 1.0156427    -1.54256  138.00   1   1.040   0.950    28.86     0.00 0  0
     13 1      0.00     0.00      0.00     0.00    1 1.0165450    -2.92356  345.00   1   1.040   0.950    28.86     0.00 0  0
     14 1    129.40    46.16      0.00     0.00    1 1.0100199    -8.45108  230.00   1   1.040   0.950    28.86    -0.00 0  0
     15 1    152.78    47.33      0.00     0.00    1 0.9948944   -11.46126  230.00   1   1.040   0.950    28.84     0.00 0  0
     16 1    179.34    51.40      0.00     0.00    1 0.9978459   -17.85374  138.00   1   1.040   0.950    28.80     0.00 0  0
     17 1    102.91    28.92      0.00     0.00    1 0.9646914   -19.37048  138.00   1   1.040   0.950    28.48     0.08 0  0
     18 1    115.54    36.02      0.00     0.00    1 0.9535103   -11.96049  138.00   1   1.040   0.950    27.40     0.39 0  0
     19 1    119.43    31.61      0.00     0.00    1 0.9762359   -22.06313  138.00   1   1.040   0.950    28.90     0.00 0  0
     20 1    118.61    33.43      0.00     0.00    1 0.9949511   -21.17435   69.00   1   1.040   0.950    28.90     0.00 0  0
     21 1    161.42    44.93      0.00     0.00    1 0.9576514   -24.33088  138.00   1   1.040   0.950    28.90     0.01 0  0
     22 1    148.34    43.59      0.00     0.00    1 0.9818257   -10.42037  230.00   1   1.040   0.950    28.92    -0.00 0  0
     23 1    113.75    38.34      0.00     0.00    1 0.9969122    -6.66059  230.00   1   1.040   0.950    28.74     0.01 0  0
     24 2    136.49    48.94      0.00     0.00    1 1.0200000   -10.88757  230.00   1   1.060   1.000    28.86     0.00 0  0
     25 1     77.66    25.60      0.00     0.00    1 0.9934698   -19.61084  230.00   1   1.040   0.950    30.71    -0.14 0  0
     26 2     95.21    27.16      0.00     0.00    1 1.0200000   -26.82193  345.00   1   1.060   1.000    28.74     0.00 0  0
     27 1    114.76    38.04      0.00     0.00    1 0.9682625   -28.72567  230.00   1   1.040   0.950    28.81     0.01 0  0
     28 2    147.66    48.26      0.00     0.00    1 1.0200000   -14.38626  138.00   1   1.060   1.000    28.25     0.00 0  0
     29 1     93.13    30.23      0.00     0.00    1 1.0129840   -16.21163  138.00   1   1.040   0.950    28.96     0.00 0  0
     30 2      0.00     0.00      0.00     0.00    1 1.0200000    -9.68565   14.00   1   1.060   1.000    28.60     0.00 0  0
     31 2      0.00     0.00      0.00     0.00    1 1.0200000    -2.43006   14.00   1   1.060   1.000    28.85     0.00 0  0
     32 2      0.00     0.00      0.00     0.00    1 1.0200000     1.79561   14.00   1   1.060   1.000    28.86     0.00 0  0
     33 2    148.45    38.55      0.00     0.00    1 1.0200000   -17.97087   14.00   1   1.060   1.000    28.90     0.00 0  0
     34 2     98.61    31.05      0.00     0.00    1 1.0200000   -19.24693   14.00   1   1.060   1.000    28.90     0.00 0  0
     35 2      0.00     0.00      0.00     0.00    1 1.0200000    -2.83873   14.00   1   1.060   1.000    28.92     0.00 0  0
     36 2      0.00     0.00      0.00     0.00    1 1.0200000     1.93129   14.00   1   1.060   1.000    28.74     0.00 0  0
     37 2      0.00     0.00      0.00     0.00    1 1.0200000   -18.33803   14.00   1   1.060   1.000    30.71     0.00 0  0
     38 2      0.00     0.00      0.00     0.00    1 1.0200000   -13.47040   14.00   1   1.060   1.000    28.96     0.00 0  0
     39 1     90.05    29.19      0.00     0.00    1 1.0028805   -22.19180  345.00   1   1.040   0.950    28.67     0.00 0  0
     40 1     90.90    27.25      0.00     0.00    1 1.0055123   -27.98441  345.00   1   1.040   0.950    28.72     0.00 0  0
     41 1    116.80    35.64      0.00     0.00    1 0.9765455   -27.58339  345.00   1   1.040   0.950    28.80     0.01 0  0
     42 1    128.97    39.76      0.00     0.00    1 1.0166985   -27.71782  345.00   1   1.040   0.950    28.76    -0.00 0  0
     43 1    119.03    37.89      0.00     0.00    1 1.0124801   -26.83147  345.00   1   1.040   0.950    28.72     0.00 0  0
     44 1     95.09    33.75      0.00     0.00    1 1.0079703    -1.34821  230.00   1   1.040   0.950    28.86    -0.00 0  0
     45 1    132.20    46.24      0.00     0.00    1 1.0130430     0.15515  345.00   1   1.040   0.950    28.86    -0.00 0  0
     46 1    118.46    37.56      0.00     0.00    1 0.9651803    -8.73034  138.00   1   1.040   0.950    28.86    -0.01 0  0
     47 1    109.09    32.36      0.00    40.00    1 0.9369082   -15.00700  138.00   1   1.040   0.950    28.85    -0.01 0  0
     48 1    128.49    37.85      0.00     0.00    1 0.9612671    -9.78553  345.00   1   1.040   0.950    28.86    -0.02 0  0
     49 2     87.06    29.65      0.00     0.00    1 1.0200000     2.82706  138.00   1   1.060   1.000    28.86     0.00 0  0
     50 1    122.56    37.10      0.00     0.00    1 0.9744979    -4.07614  138.00   1   1.040   0.950    28.86    -0.00 0  0
     51 1    110.60    39.82      0.00     0.00    1 0.9794304    -7.28797  138.00   1   1.040   0.950    28.86    -0.00 0  0
     52 2    136.76    46.15      0.00     0.00    1 1.0200000     1.34712  345.00   1   1.060   1.000    28.86     0.00 0  0
     53 1    193.71    62.67      0.00     0.00    1 0.9673281    -7.92877  138.00   1   1.040   0.950    28.86    -0.00 0  0
     54 2     98.17    35.62      0.00     0.00    1 1.0200000     2.56583  230.00   1   1.060   1.000    28.86     0.00 0  0
     55 1    130.58    41.03      0.00     0.00    1 1.0029411    -2.52122  230.00   1   1.040   0.950    28.86    -0.00 0  0
     56 2    136.68    43.18      0.00     0.00    1 1.0200000    -7.36821  345.00   1   1.060   1.000    28.84     0.00 0  0
     57 1     83.68    28.54      0.00     0.00    1 0.9397845   -12.75447  138.00   1   1.040   0.950    28.85    -0.01 0  0
     58 1    166.10    53.47      0.00     0.00    1 0.9937769    -9.05440  345.00   1   1.040   0.950    28.86    -0.00 0  0
     59 1    106.91    34.45      0.00     0.00    1 1.0059559   -11.04030  345.00   1   1.040   0.950    28.83     0.00 0  0
     60 1    118.41    39.38      0.00     0.00    1 0.9324264   -14.14395  138.00   1   1.040   0.950    28.85    -0.01 0  0
     61 1    139.33    42.64      0.00     0.00    1 0.9987686   -13.36410  230.00   1   1.040   0.950    28.84     0.01 0  0
     62 1    127.97    46.65      0.00     0.00    1 0.9847432   -10.11662  345.00   1   1.040   0.950    28.86    -0.00 0  0
     63 1    102.52    39.52      0.00     0.00    1 0.9338389   -13.86419  138.00   1   1.040   0.950    28.85    -0.01 0  0
     64 1    209.54    65.20      0.00     0.00    1 0.9556822   -12.73407  138.00   1   1.040   0.950    28.85    -0.00 0  0
     65 1     90.02    35.67      0.00     0.00    1 0.9900011    -1.54863  138.00   1   1.040   0.950    28.86    -0.00 0  0
     66 1    103.80    39.23      0.00     0.00    1 0.9983620    -8.71008  345.00   1   1.040   0.950    28.86    -0.00 0  0
     67 1    116.67    36.23      0.00     0.00    1 0.9634325    -7.84704  138.00   1   1.040   0.950    28.86    -0.00 0  0
     68 1    139.80    49.46      0.00     0.00    1 0.9772753    -6.02747  138.00   1   1.040   0.950    28.86    -0.00 0  0
     69 2     84.22    34.14      0.00     0.00    1 1.0200000    -2.26458  345.00   1   1.060   1.000    28.86     0.00 0  0
     70 1    111.07    38.87      0.00     0.00    1 0.9945117    -4.77890  138.00   1   1.040   0.950    28.86    -0.00 0  0
     71 1     91.71    34.71      0.00     0.00    1 1.0065540    -7.91262  345.00   1   1.040   0.950    28.87    -0.00 0  0
     72 2     82.59    31.81      0.00     0.00    1 0.9836140    -7.07196  138.00   1   1.060   1.000    28.86    -0.00 0  0
     73 1     94.58    32.09      0.00     0.00    1 0.9801755    -7.40122  138.00   1   1.040   0.950    28.86    -0.00 0  0
     74 1    104.27    32.98      0.00     0.00    1 0.9835131    -6.06652  345.00   1   1.040   0.950    28.86    -0.02 0  0
     75 1    108.74    34.93      0.00     0.00    1 0.9567060   -10.14422  138.00   1   1.040   0.950    28.86    -0.02 0  0
     76 2    132.33    38.00      0.00     0.00    1 1.0200000    -6.55492  345.00   1   1.060   1.000    28.87     0.00 0  0
     77 1     94.69    27.56      0.00     0.00    1 0.9826041   -22.21192  138.00   1   1.040   0.950    28.73    -0.02 0  0
     78 2    115.41    35.21      0.00     0.00    1 1.0200000   -23.15771  345.00   1   1.060   1.000    28.79     0.00 0  0
     79 1    149.13    40.95      0.00     0.00    1 1.0330755   -24.29599  345.00   1   1.040   0.950    28.80    -0.00 0  0
     80 2    122.18    33.59      0.00     0.00    1 1.0200000    -9.80953  345.00   1   1.060   1.000    28.81     0.00 0  0
     81 1    130.72    31.63      0.00     0.00    1 1.0166000   -14.13132  345.00   1   1.040   0.950    28.81     0.00 0  0
     82 2     92.87    27.06      0.00     0.00    1 1.0200000   -15.61681  345.00   1   1.060   1.000    28.82     0.00 0  0
     83 1     97.73    28.41      0.00     0.00    1 1.0187550   -19.50967  345.00   1   1.040   0.950    28.82     0.00 0  0
     84 2     76.54    24.92      0.00     0.00    1 1.0200000   -19.59806  138.00   1   1.060   1.000    28.82     0.00 0  0
     85 1     84.44    24.68      0.00     0.00    1 0.9797960   -24.57185  230.00   1   1.040   0.950    28.87    -0.00 0  0
     86 1    125.86    31.19      0.00     0.00    1 0.9771979   -22.28842  138.00   1   1.040   0.950    28.90     0.00 0  0
     87 1    141.09    36.50      0.00     0.00    1 1.0370199   -20.59641  345.00   1   1.040   0.950    28.80    -0.00 0  0
     88 1    113.92    38.76      0.00     0.00    1 1.0099233   -16.48455  138.00   1   1.040   0.950    28.35     0.02 0  0
     89 1     90.63    29.56      0.00     0.00    1 0.9323985   -27.58101  138.00   1   1.040   0.950    28.72    -0.03 0  0
     90 1     98.62    33.09      0.00     0.00    1 0.9833374    -7.70819  230.00   1   1.040   0.950    28.74     0.01 0  0
     91 1    112.84    37.72      0.00     0.00    1 0.9612777   -10.07776  230.00   1   1.040   0.950    28.74     0.01 0  0
     92 1    106.67    28.86      0.00     0.00    1 0.9634953   -15.74697  345.00   1   1.040   0.950    28.91    -0.00 0  0
     93 1    120.50    37.61      0.00     0.00    1 0.9673007   -16.21929  345.00   1   1.040   0.950    28.91     0.00 0  0
     94 1    143.17    45.91      0.00     0.00    1 0.9832446   -17.37757  138.00   1   1.040   0.950    28.90     0.00 0  0
     95 1    133.37    40.64      0.00     0.00    1 0.9594779   -19.63713  138.00   1   1.040   0.950    28.90     0.00 0  0
     96 1    147.46    44.92      0.00     0.00    1 0.9606980   -20.09445  138.00   1   1.040   0.950    28.89     0.00 0  0
     97 1    145.23    31.43      0.00     0.00    1 0.9796977   -16.35960  345.00   1   1.040   0.950    28.88     0.00 0  0
     98 1    153.55    40.93      0.00     0.00    1 1.0052124   -15.45464  345.00   1   1.040   0.950    28.88     0.01 0  0
     99 1    145.67    41.42      0.00     0.00    1 0.9669084   -19.17350  345.00   1   1.040   0.950    28.90     0.00 0  0
    100 1    120.27    37.28      0.00     0.00    1 0.9553059   -16.03673  138.00   1   1.040   0.950    28.88     0.01 0  0
    101 1    113.33    34.71      0.00     0.00    1 0.9632929   -16.75148  345.00   1   1.040   0.950    28.91     0.00 0  0
    102 1     81.49    33.19      0.00     0.00    1 0.9652494   -20.40136  138.00   1   1.040   0.950    28.90     0.00 0  0
    103 2    170.33    50.39      0.00     0.00    1 1.0200000   -11.31050  138.00   1   1.060   1.000    28.90     0.00 0  0
    104 1    125.72    36.41      0.00     0.00    1 0.9445308   -24.80189  138.00   1   1.040   0.950    28.90     0.01 0  0
    105 1     98.67    30.04      0.00     0.00    1 0.9615078   -23.48149  138.00   1   1.040   0.950    28.90     0.00 0  0
    106 1    100.32    30.91      0.00     0.00    1 0.9460540   -26.25041  138.00   1   1.040   0.950    28.90     0.01 0  0
    107 1    112.47    36.58      0.00     0.00    1 0.9484149   -25.58986  138.00   1   1.040   0.950    28.90     0.01 0  0
    108 1    170.79    49.17      0.00     0.00    1 0.9463057   -25.14871  230.00   1   1.040   0.950    28.90     0.01 0  0
    109 1    137.69    42.73      0.00     0.00    1 0.9468858   -27.47131  138.00   1   1.040   0.950    28.91     0.01 0  0
    110 1     81.50    31.72      0.00     0.00    1 0.9640305   -23.14217  138.00   1   1.040   0.950    28.90     0.00 0  0
    111 1    130.91    43.47      0.00     0.00    1 0.9628169   -22.42669  345.00   1   1.040   0.950    28.90     0.01 0  0
    112 1    168.83    46.77      0.00     0.00    1 0.9340377   -27.92703  138.00   1   1.040   0.950    28.91     0.01 0  0
    113 1     80.83    28.26      0.00    50.00    1 0.9358063   -29.88709  138.00   1   1.040   0.950    28.91     0.01 0  0
    114 1     83.48    29.92      0.00     0.00    1 0.9556725   -21.87379  138.00   1   1.040   0.950    28.90     0.00 0  0
    115 1     91.77    30.34      0.00     0.00    1 0.9679666   -15.07316  345.00   1   1.040   0.950    28.91    -0.00 0  0
    116 1    151.81    41.33      0.00     0.00    1 0.9789601   -24.89897  230.00   1   1.040   0.950    28.90     0.01 0  0
    117 1    121.43    40.00      0.00     0.00    1 0.9657564   -23.77846  138.00   1   1.040   0.950    28.89     0.01 0  0
    118 1     82.26    27.19      0.00     0.00    1 0.9601255   -24.45324  138.00   1   1.040   0.950    28.90     0.01 0  0
    119 1    146.00    39.55      0.00     0.00    1 0.9527234   -25.28230  138.00   1   1.040   0.950    28.90     0.01 0  0
    120 2     98.56    34.74      0.00     0.00    1 0.9887816   -24.88668  230.00   1   1.060   1.000    28.90     0.01 0  0
    121 1    114.75    38.28      0.00     0.00    1 0.9817033   -25.55547  230.00   1   1.040   0.950    28.90     0.01 0  0
    122 1     97.97    33.72      0.00     0.00    1 0.9445566   -26.77674  138.00   1   1.040   0.950    28.90     0.01 0  0
    123 1    134.74    36.26      0.00     0.00    1 0.9852860   -23.81790  230.00   1   1.040   0.950    28.89     0.01 0  0
    124 1    137.48    36.29      0.00     0.00    1 0.9389050   -26.22508  230.00   1   1.040   0.950    29.01     0.01 0  0
    125 1    142.26    44.57      0.00     0.00    1 0.9490433   -24.91268  138.00   1   1.040   0.950    28.91     0.01 0  0
    126 1    121.66    32.88      0.00     0.00    1 0.9515523   -26.86720  230.00   1   1.040   0.950    28.93     0.01 0  0
    127 1    138.36    38.66      0.00     0.00    1 0.9488806   -26.48366  230.00   1   1.040   0.950    28.95     0.01 0  0
    128 2    148.61    41.27      0.00     0.00    1 1.0200000   -16.39471  138.00   1   1.060   1.000    28.76     0.00 0  0
    129 1    118.53    35.70      0.00     0.00    1 0.9389944   -26.05471  138.00   1   1.040   0.950    28.91     0.01 0  0
    130 2    124.69    38.70      0.00     0.00    1 1.0115582   -21.69133  138.00   1   1.060   1.000    28.85     0.00 0  0
    131 1    160.12    46.84      0.00     0.00    1 0.9372273   -27.25632  138.00   1   1.040   0.950    28.91     0.01 0  0
    132 1    151.22    36.44      0.00     0.00    1 0.9592826   -21.76918  230.00   1   1.040   0.950    29.08     0.03 0  0
    133 1    104.19    34.78      0.00     0.00    1 0.9633195   -22.12775  230.00   1   1.040   0.950    29.72    -0.16 0  0
    134 1    120.54    35.69      0.00     0.00    1 0.9514999   -22.55723  230.00   1   1.040   0.950    29.03     0.02 0  0
    135 1     95.57    32.33      0.00     0.00    1 0.9887436   -19.02056  345.00   1   1.040   0.950    28.90     0.01 0  0
    136 1    112.96    36.72      0.00     0.00    1 0.9494454   -24.20284  138.00   1   1.040   0.950    28.90     0.00 0  0
    137 1     94.86    30.79      0.00     0.00    1 1.0016717   -17.65891  345.00   1   1.040   0.950    28.89     0.01 0  0
    138 1    145.20    41.02      0.00     0.00    1 0.9632229   -20.64323  345.00   1   1.040   0.950    28.90     0.01 0  0
    139 1    129.81    39.57      0.00     0.00    1 0.9964591   -13.65085  345.00   1   1.040   0.950    28.59    -0.01 0  0
    140 1    160.85    43.64      0.00     0.00    1 0.9717906   -13.93749  138.00   1   1.040   0.950    28.88     0.01 0  0
    141 2    148.43    44.50      0.00     0.00    1 1.0083103   -10.06211  345.00   1   1.060   1.000    28.88     0.01 0  0
    142 1    105.98    38.44      0.00     0.00    1 0.9432441   -25.17401  230.00   1   1.040   0.950    29.03     0.01 0  0
    143 2    142.33    41.37      0.00     0.00    1 1.0098393   -14.28797  230.00   1   1.060   1.000    28.84     0.01 0  0
    144 1    164.11    49.86      0.00     0.00    1 0.9972162   -15.94813  230.00   1   1.040   0.950    28.84     0.01 0  0
    145 1    132.69    45.55      0.00     0.00    1 0.9751418   -20.43700  138.00   1   1.040   0.950    28.67     0.02 0  0
    146 2    142.77    44.82      0.00     0.00    1 1.0097213   -16.66132  345.00   1   1.060   1.000    28.89     0.01 0  0
    147 1     99.64    31.37      0.00     0.00    1 0.9497509   -25.98802  138.00   1   1.040   0.950    28.90     0.01 0  0
    148 1    109.63    34.04      0.00     0.00    1 0.9680772   -15.82037  345.00   1   1.040   0.950    28.91     0.00 0  0
    149 2    170.60    44.63      0.00     0.00    1 1.0200000   -19.00821  138.00   1   1.060   1.000    28.76     0.00 0  0
    150 1    127.93    39.80      0.00     0.00    1 0.9482196   -11.68418  345.00   1   1.040   0.950    28.85    -0.02 0  0
    151 1    111.85    38.03      0.00     0.00    1 1.0040764   -17.36363  345.00   1   1.040   0.950    28.89     0.01 0  0
    152 1     93.77    27.73      0.00    30.00    1 0.9352679   -28.54566  138.00   1   1.040   0.950    28.91     0.01 0  0
    153 1    107.29    37.35      0.00     0.00    1 0.9828456   -19.63033  345.00   1   1.040   0.950    28.90     0.01 0  0
    154 1    127.67    41.63      0.00     0.00    1 0.9626257   -26.93521  230.00   1   1.040   0.950    28.86    -0.00 0  0
    155 1    117.86    40.90      0.00     0.00    1 0.9427651   -28.62316  138.00   1   1.040   0.950    28.87     0.00 0  0
    156 1    121.39    41.00      0.00     0.00    1 0.9979902   -20.74914  345.00   1   1.040   0.950    28.86     0.00 0  0
    157 2    120.29    37.34      0.00     0.00    1 1.0200000   -19.42808  138.00   1   1.060   1.000    28.87     0.00 0  0
    158 1    119.79    32.92      0.00     0.00    1 0.9786524   -19.75905  138.00   1   1.040   0.950    28.87     0.00 0  0
    159 1    122.93    30.54      0.00     0.00    1 0.9887019   -24.65524  345.00   1   1.040   0.950    28.83     0.00 0  0
    160 1    149.36    53.95      0.00     0.00    1 0.9385340   -30.31961  230.00   1   1.040   0.950    28.83     0.00 0  0
    161 1     85.59    30.10      0.00     0.00    1 0.9731796   -20.78577  138.00   1   1.040   0.950    28.87    -0.00 0  0
    162 2    116.32    38.72      0.00     0.00    1 1.0200000   -17.17707  345.00   1   1.060   1.000    28.88     0.00 0  0
    163 1    139.58    46.18      0.00     0.00    1 0.9915941   -22.13328  230.00   1   1.040   0.950    28.89     0.01 0  0
    164 1    113.28    43.17      0.00     0.00    1 0.9616802   -22.15724  138.00   1   1.040   0.950    28.88     0.01 0  0
    165 2    118.72    31.40      0.00     0.00    1 1.0200000   -16.59791  230.00   1   1.060   1.000    28.88     0.00 0  0
    166 2    110.47    34.32      0.00     0.00    1 1.0200000   -14.31793  138.00   1   1.060   1.000    28.87     0.00 0  0
    167 1    110.43    31.05      0.00     0.00    1 1.0216419   -25.08481  345.00   1   1.040   0.950    28.79    -0.00 0  0
    168 1     77.41    29.19      0.00     0.00    1 0.9663133   -21.42256  230.00   1   1.040   0.950    30.75    -0.13 0  0
    169 1    112.82    34.22      0.00     0.00    1 0.9795252   -23.24872  138.00   1   1.040   0.950    28.87     0.00 0  0
    170 1    126.40    40.24      0.00    30.00    1 0.9339465   -16.60044  138.00   1   1.040   0.950    28.87     0.00 0  0
    171 1    112.23    42.32      0.00     0.00    1 0.9351150   -16.91183  138.00   1   1.040   0.950    28.88     0.00 0  0
    172 1    126.92    38.64      0.00     0.00    1 0.9628132    -9.82608  138.00   1   1.040   0.950    28.87     0.00 0  0
    173 1    115.08    41.15      0.00     0.00    1 0.9567935    -9.54610  138.00   1   1.040   0.950    28.86     0.00 0  0
    174 1    135.26    45.99      0.00     0.00    1 1.0042018   -10.61956  345.00   1   1.040   0.950    28.87     0.00 0  0
    175 2    108.68    32.79      0.00     0.00    1 1.0200000    -6.63471  138.00   1   1.060   1.000    28.87     0.00 0  0
    176 2    133.29    41.85      0.00     0.00    1 1.0200000   -17.15955  345.00   1   1.060   1.000    28.89     0.00 0  0
    177 1    184.23    62.59      0.00     0.00    1 1.0049931   -12.19053  230.00   1   1.040   0.950    28.86     0.00 0  0
    178 1    100.78    33.65      0.00     0.00    1 0.9769867   -16.18173  138.00   1   1.040   0.950    28.87     0.00 0  0
    179 1      9.25     2.81      0.00     0.00    1 0.9757855   -16.26701  138.00   1   1.040   0.950    28.87     0.00 0  0
    180 1     13.39     4.25      0.00     0.00    1 1.0040449   -10.68652  345.00   1   1.040   0.950    28.87     0.00 0  0
    181 1      0.00     0.00      0.00     0.00    1 1.0206668    -2.42222  345.00   1   1.040   0.950    28.87    -0.15 0  0
    182 1      0.00     0.00      0.00     0.00    1 0.9854240    -6.20761  345.00   1   1.040   0.950    28.86    -0.02 0  0
    183 1      0.00     0.00      0.00     0.00    1 1.0008524    -2.73252  345.00   1   1.040   0.950    28.86    -0.01 0  0
    184 1      0.00     0.00      0.00     0.00    1 0.9994407    -7.09173  230.00   1   1.040   0.950    28.85     0.00 0  0
    185 1      0.00     0.00      0.00     0.00    1 1.0060030    -7.11197  345.00   1   1.040   0.950    28.85    -0.00 0  0
    186 1      0.00     0.00      0.00     0.00    1 1.0009674    -1.84841  345.00   1   1.040   0.950    28.86    -0.00 0  0
    187 1      0.00     0.00      0.00     0.00    1 1.0164015     0.06156  345.00   1   1.040   0.950    28.86    -0.00 0  0
    188 1      0.00     0.00      0.00     0.00    1 1.0170004    -2.54477  345.00   1   1.040   0.950    28.86     0.00 0  0
    189 1      0.00     0.00      0.00     0.00    1 1.0163215    -2.97963  345.00   1   1.040   0.950    28.86     0.00 0  0
    190 1      0.00     0.00      0.00     0.00    1 1.0127009    -6.62087  345.00   1   1.040   0.950    28.87    -0.00 0  0
    191 1      0.00     0.00      0.00     0.00    1 1.0113459   -10.18078  345.00   1   1.040   0.950    28.83     0.00 0  0
    192 1      0.00     0.00      0.00     0.00    1 0.9960804   -15.85041  230.00   1   1.040   0.950    28.83     0.01 0  0
    193 1      0.00     0.00      0.00     0.00    1 1.0027772   -14.56366  345.00   1   1.040   0.950    28.80     0.01 0  0
    194 1      0.00     0.00      0.00     0.00    1 0.9974620   -16.57390  345.00   1   1.040   0.950    28.76     0.02 0  0
    195 1      0.00     0.00      0.00     0.00    1 0.9577213   -23.52659  230.00   1   1.040   0.950    28.90     0.01 0  0
    196 1      0.00     0.00      0.00     0.00    1 0.9637451   -21.58032  345.00   1   1.040   0.950    28.90     0.01 0  0
    197 1      0.00     0.00      0.00     0.00    1 0.9593712   -22.07921  230.00   1   1.040   0.950    28.94     0.02 0  0
    198 1      0.00     0.00      0.00     0.00    1 0.9645997   -20.77406  345.00   1   1.040   0.950    28.91     0.01 0  0
    199 1      0.00     0.00      0.00     0.00    1 0.9740710   -14.20082  345.00   1   1.040   0.950    28.91    -0.00 0  0
    200 1      0.00     0.00      0.00     0.00    1 1.0035815   -12.58969  345.00   1   1.040   0.950    28.87     0.00 0  0
...
];

%% generator data 
mpc.gen = [
      1    338.00    -41.38    103.00   -103.00  1.0200    100.00 1    338.00      3.00     81.31   9999.90   -500.00   1500.00   -500.00   1500.00 0 0 0 0   0.0000 0 0 0 0
      3    572.32     70.24    392.00   -209.00  1.0200    100.00 1    686.00    298.00      0.00      0.00      0.00      0.00      0.00      0.00 0 0 0 0   0.0000 0 0 0 0
      7    674.00    161.76    385.00   -205.00  1.0200    100.00 1    674.00    139.00      0.00      0.00      0.00      0.00      0.00      0.00 0 0 0 0   0.0000 0 0 0 0
      8    189.00    182.72    349.00   -186.00  1.0200    100.00 1    611.00    189.00      0.00      0.00      0.00      0.00      0.00      0.00 0 0 0 0   0.0000 0 0 0 0
     10   1502.80    195.35   1298.00   -692.00  1.0200    100.00 1   2271.00   1406.00      0.00      0.00      0.00      0.00      0.00      0.00 0 0 0 0   0.0000 0 0 0 0
     24    435.58    262.69    309.00   -165.00  1.0200    100.00 1    541.00    288.00      0.00      0.00      0.00      0.00      0.00      0.00 0 0 0 0   0.0000 0 0 0 0
     26    137.20    101.05    171.00    -91.00  1.0200    100.00 1    300.00    120.00      0.00      0.00      0.00      0.00      0.00      0.00 0 0 0 0   0.0000 0 0 0 0
     28    562.95     97.22    338.00   -180.00  1.0200    100.00 1    592.00    216.00      0.00      0.00      0.00      0.00      0.00      0.00 0 0 0 0   0.0000 0 0 0 0
     30    228.50     71.77    150.00    -80.00  1.0200    100.00 1    263.00    125.00      0.00      0.00      0.00      0.00      0.00      0.00 0 0 0 0   0.0000 0 0 0 0
     31    241.00     83.75    457.00   -244.00  1.0200    100.00 1    800.00    241.00      0.00      0.00      0.00      0.00      0.00      0.00 0 0 0 0   0.0000 0 0 0 0
     32    163.00      2.55    390.00   -208.00  1.0200    100.00 1    683.00    163.00      0.00      0.00      0.00      0.00      0.00      0.00 0 0 0 0   0.0000 0 0 0 0
     33    664.00    345.37    379.00   -202.00  1.0200    100.00 1    664.00    379.00      0.00      0.00      0.00      0.00      0.00      0.00 0 0 0 0   0.0000 0 0 0 0
     34    295.00    166.36    707.00   -377.00  1.0200    100.00 1   1237.00    295.00      0.00      0.00      0.00      0.00      0.00      0.00 0 0 0 0   0.0000 0 0 0 0
     35    924.00    333.51    792.00   -422.00  1.0200    100.00 1   1386.00    924.00      0.00      0.00      0.00      0.00      0.00      0.00 0 0 0 0   0.0000 0 0 0 0
     36    560.67    118.23    336.00   -179.00  1.0200    100.00 1    588.00    140.00      0.00      0.00      0.00      0.00      0.00      0.00 0 0 0 0   0.0000 0 0 0 0
     37    100.00    115.13    324.00   -173.00  1.0200    100.00 1    567.00    100.00      0.00      0.00      0.00      0.00      0.00      0.00 0 0 0 0   0.0000 0 0 0 0
     38    318.67     37.11    498.00   -266.00  1.0200    100.00 1    872.00    208.00      0.00      0.00      0.00      0.00      0.00      0.00 0 0 0 0   0.0000 0 0 0 0
     49    607.00    162.04    347.00   -185.00  1.0200    100.00 1    607.00    320.00      0.00      0.00      0.00      0.00      0.00      0.00 0 0 0 0   0.0000 0 0 0 0
     52   1025.33    220.72    938.00   -500.00  1.0200    100.00 1   1642.00    162.00      0.00      0.00      0.00      0.00      0.00      0.00 0 0 0 0   0.0000 0 0 0 0
     54    546.00     11.14    312.00   -166.00  1.0200    100.00 1    546.00    208.00      0.00      0.00      0.00      0.00      0.00      0.00 0 0 0 0   0.0000 0 0 0 0
     56    728.00    284.47    416.00   -222.00  1.0200    100.00 1    728.00    416.00      0.00      0.00      0.00      0.00      0.00      0.00 0 0 0 0   0.0000 0 0 0 0
     69    520.00    154.50    297.00   -158.00  1.0200    100.00 1    520.00    149.00      0.00      0.00      0.00      0.00      0.00      0.00 0 0 0 0   0.0000 0 0 0 0
     72    263.00    150.00    150.00    -80.00  1.0200    100.00 1    263.00     85.00      0.00      0.00      0.00      0.00      0.00      0.00 0 0 0 0   0.0000 0 0 0 0
     76    882.00    307.46    504.00   -269.00  1.0200    100.00 1    882.00    435.00      0.00      0.00      0.00      0.00      0.00      0.00 0 0 0 0   0.0000 0 0 0 0
     78    222.17    -59.90    165.00    -88.00  1.0200    100.00 1    288.00    130.00      0.00      0.00      0.00      0.00      0.00      0.00 0 0 0 0   0.0000 0 0 0 0
     80    578.00    -68.16    330.00   -176.00  1.0200    100.00 1    578.00    113.00      0.00      0.00      0.00      0.00      0.00      0.00 0 0 0 0   0.0000 0 0 0 0
     82    176.00    -19.87    179.00    -95.00  1.0200    100.00 1    313.00    176.00      0.00      0.00      0.00      0.00      0.00      0.00 0 0 0 0   0.0000 0 0 0 0
     84    169.00     84.54    508.00   -271.00  1.0200    100.00 1    888.00    169.00      0.00      0.00      0.00      0.00      0.00      0.00 0 0 0 0   0.0000 0 0 0 0
    103    916.00    333.38    523.00   -279.00  1.0200    100.00 1    916.00    208.00      0.00      0.00      0.00      0.00      0.00      0.00 0 0 0 0   0.0000 0 0 0 0
    120    161.00    350.00    350.00   -258.00  1.0200    100.00 1    845.00    161.00      0.00      0.00      0.00      0.00      0.00      0.00 0 0 0 0   0.0000 0 0 0 0
    128    328.50     45.97    216.00   -115.00  1.0200    100.00 1    378.00    180.00      0.00      0.00      0.00      0.00      0.00      0.00 0 0 0 0   0.0000 0 0 0 0
    130    115.00    153.00    153.00    -81.00  1.0200    100.00 1    267.00    115.00      0.00      0.00      0.00      0.00      0.00      0.00 0 0 0 0   0.0000 0 0 0 0
    141    877.00    350.00    350.00   -515.00  1.0200    100.00 1   1691.00    877.00      0.00      0.00      0.00      0.00      0.00      0.00 0 0 0 0   0.0000 0 0 0 0
    143    216.67    173.00    173.00    -92.00  1.0200    100.00 1    303.00    155.00      0.00      0.00      0.00      0.00      0.00      0.00 0 0 0 0   0.0000 0 0 0 0
    146    607.00    347.00    347.00   -185.00  1.0200    100.00 1    607.00    300.00      0.00      0.00      0.00      0.00      0.00      0.00 0 0 0 0   0.0000 0 0 0 0
    149    186.00    132.02    157.00    -83.00  1.0200    100.00 1    274.00    186.00      0.00      0.00      0.00      0.00      0.00      0.00 0 0 0 0   0.0000 0 0 0 0
    157    288.00    177.25    298.00   -159.00  1.0200    100.00 1    521.00    288.00      0.00      0.00      0.00      0.00      0.00      0.00 0 0 0 0   0.0000 0 0 0 0
    162    636.00    188.38    363.00   -194.00  1.0200    100.00 1    636.00    230.00      0.00      0.00      0.00      0.00      0.00      0.00 0 0 0 0   0.0000 0 0 0 0
    165    782.00    207.62    745.00   -397.00  1.0200    100.00 1   1304.00    782.00      0.00      0.00      0.00      0.00      0.00      0.00 0 0 0 0   0.0000 0 0 0 0
    166    830.00    165.94    474.00   -253.00  1.0200    100.00 1    830.00    277.00      0.00      0.00      0.00      0.00      0.00      0.00 0 0 0 0   0.0000 0 0 0 0
    175    626.00    105.74    358.00   -191.00  1.0200    100.00 1    626.00    209.00      0.00      0.00      0.00      0.00      0.00      0.00 0 0 0 0   0.0000 0 0 0 0
    176     86.00    109.91    153.00    -81.00  1.0200    100.00 1    267.00     86.00      0.00      0.00      0.00      0.00      0.00      0.00 0 0 0 0   0.0000 0 0 0 0
];

%% generator cost data
mpc.gencost = [
2 0 0 4   0.0000    0.001   17.500   450.00
2 0 0 4   0.0000    0.001   24.757  1505.67
2 0 0 4   0.0000    0.002   24.400  3342.77
2 0 0 4   0.0000    0.005   30.562  1114.42
2 0 0 4   0.0000    0.001   25.697  6313.07
2 0 0 4   0.0000    0.002   27.100  1297.89
2 0 0 4   0.0000    0.005   27.249   783.88
2 0 0 4   0.0000    0.002   26.174  1372.76
2 0 0 4   0.0000    0.006   26.053   655.13
2 0 0 4   0.0000    0.002   29.298  3418.85
2 0 0 4   0.0000    0.002   29.135  1458.22
2 0 0 4   0.0000    0.001   23.899  4734.80
2 0 0 4   0.0000    0.004   29.960  3677.05
2 0 0 4   0.0000    0.001   26.605  6691.85
2 0 0 4   0.0000    0.002   26.400  3342.77
2 0 0 4   0.0000    0.004   52.785  7415.02
2 0 0 4   0.0000    0.003   27.114  3844.19
2 0 0 4   0.0000    0.002   25.878  1390.96
2 0 0 4   0.0000    0.003   21.871  2841.36
2 0 0 4   0.0000    0.002   26.558  1284.25
2 0 0 4   0.0000    0.001   24.540  1581.44
2 0 0 4   0.0000    0.002   25.780  3523.95
2 0 0 4   0.0000    0.003   22.330  2325.41
2 0 0 4   0.0000    0.001   25.323  1978.07
2 0 0 4   0.0000    0.005   26.473   732.25
2 0 0 4   0.0000    0.002   26.356  1347.98
2 0 0 4   0.0000    0.008   27.364   550.89
2 0 0 4   0.0000    0.004   31.864  3610.20
2 0 0 4   0.0000    0.001   25.117  2036.75
2 0 0 4   0.0000    0.004   32.314  3777.33
2 0 0 4   0.0000    0.004   26.167   947.57
2 0 0 4   0.0000    0.006   27.791   710.04
2 0 0 4   0.0000    0.003   27.697  4313.07
2 0 0 4   0.0000    0.005   26.616   773.70
2 0 0 4   0.0000    0.002   26.010  1398.04
2 0 0 4   0.0000    0.006   27.475   721.30
2 0 0 4   0.0000    0.006   32.756  1215.71
2 0 0 4   0.0000    0.002   25.916  1460.47
2 0 0 4   0.0000    0.001   26.918  6534.03
2 0 0 4   0.0000    0.001   25.325  1860.51
2 0 0 4   0.0000    0.002   25.962  1438.95
2 0 0 4   0.0000    0.006   27.924   713.43
];

%% branch data
mpc.branch = [
      1       2  0.005978  0.120624   1.98515    414.51    414.51    414.51 1.00000    0.000 1    0.00    0.00    338.00    -41.38   -331.22    -25.86 0 0 0 0
      2      30  0.000000  0.018100   0.00000   1000.00   1000.00   1000.00 1.00000    0.000 1    0.00    0.00   -228.50    -61.79    228.50     71.77 0 0 0 0
      2      39  0.008680  0.060198   0.52937    530.03    530.03    530.03 1.00000    0.000 1    0.00    0.00    296.35    -34.38   -288.85     32.91 0 0 0 0
      2     139  0.003390  0.023178   0.20974    530.03    530.03    530.03 1.00000    0.000 1    0.00    0.00    130.42     22.63   -129.81    -39.57 0 0 0 0
      2     181  0.007607  0.052755   0.46393    530.03    530.03    530.03 1.00000    0.000 1    0.00    0.00   -317.17     25.24    324.88    -19.52 0 0 0 0
      2     201  0.002742  0.018748   0.16965    530.03    530.03    530.03 1.00000    0.000 1    0.00    0.00    337.73     36.62   -334.60    -32.17 0 0 0 0
      3      18  0.003829  0.158129   0.09685    316.20    316.20    316.20 1.00000    0.000 1    0.00    0.00    172.59     57.94   -171.35    -16.08 0 0 0 0
      3     181  0.000638  0.030000   0.00000    400.00    400.00    400.00 1.00000    0.000 1    0.00    0.00    399.73     12.30   -398.75     33.82 0 0 0 0
      4      75  0.016845  0.038117   0.00951    107.32    107.32    107.32 1.00000    0.000 1    0.00    0.00     41.07      9.66    -40.75     -9.81 0 0 0 0
      4     182  0.000889  0.040000   0.00000    300.00    300.00    300.00 1.00000    0.000 1    0.00    0.00   -128.62    -36.53    128.79     44.16 0 0 0 0
      5       8  0.002959  0.039331   0.08406    578.83    578.83    578.83 1.00000    0.000 1    0.00    0.00   -275.05    -50.97    277.42     73.92 0 0 0 0
      5     183  0.001261  0.046667   0.00000    150.00    150.00    150.00 1.00000    0.000 1    0.00    0.00    -76.28    -25.20     76.37     28.29 0 0 0 0
      5     184  0.045023  0.111012   0.17939    178.87    178.87    178.87 1.00000    0.000 1    0.00    0.00     27.31    -29.87    -26.76     13.52 0 0 0 0
      5     207  0.001124  0.013276   0.03027    541.39    541.39    541.39 1.00000    0.000 1    0.00    0.00    214.73     65.08   -214.15    -61.11 0 0 0 0
      6       7  0.062002  0.145750   0.03365    107.32    107.32    107.32 1.00000    0.000 1    0.00    0.00    -83.92     27.78     88.81    -19.71 0 0 0 0
      6      31  0.000000  0.025000   0.00000   1100.00   1100.00   1100.00 1.00000    0.000 1    0.00    0.00   -241.00    -68.11    241.00     83.75 0 0 0 0
      6      70  0.033638  0.077688   0.01859    107.32    107.32    107.32 1.00000    0.000 1    0.00    0.00    -16.24     14.95     16.41    -16.40 0 0 0 0
      6     184  0.000297  0.014545   0.00000    550.00    550.00    550.00 1.00000    0.000 1    0.00    0.00    153.83     10.80   -153.76     -7.35 0 0 0 0
      6     185  0.000556  0.026667   0.00000    450.00    450.00    450.00 1.00000    0.000 1    0.00    0.00     85.28    -18.78    -85.24     20.81 0 0 0 0
      7     186  0.000336  0.017143   0.00000    700.00    700.00    700.00 1.00000    0.000 1    0.00    0.00    412.42    119.29   -411.83    -88.92 0 0 0 0
      8      54  0.000326  0.005080   0.01216    665.28    665.28    665.28 1.00000    0.000 1    0.00    0.00   -447.20     33.04    447.83    -24.48 0 0 0 0
      8     187  0.000196  0.010000   0.00000    700.00    700.00    700.00 1.00000    0.000 1    0.00    0.00    226.32     34.72   -226.22    -29.68 0 0 0 0
    187       9  0.006838  0.047422   0.41703    530.03    530.03    530.03 1.00000    0.000 1    0.00    0.00      0.03    -43.30      0.00      0.00 0 0 0 0
     10      11  0.000315  0.008557   0.00495    566.01    566.01    566.01 1.00000    0.000 1    0.00    0.00    206.51     41.45   -206.38    -38.31 0 0 0 0
     10      32  0.000000  0.020000   0.00000   1000.00   1000.00   1000.00 1.00000    0.000 1    0.00    0.00   -163.00      2.56    163.00      2.55 0 0 0 0
     10      70  0.005799  0.067267   0.02063    324.83    324.83    324.83 1.00000    0.000 1    0.00    0.00    128.46     31.74   -127.48    -22.47 0 0 0 0
     10     188  0.000073  0.003750   0.00000   3200.00   3200.00   3200.00 1.00000    0.000 1    0.00    0.00   1229.87     84.76  -1228.80    -29.98 0 0 0 0
     12      11  0.001279  0.043500   0.00000    100.00    100.00    100.00 1.00000    0.000 1    0.00    0.00    -23.72     -0.04     23.72      0.27 0 0 0 0
     11     173  0.016673  0.124076   0.03486    237.35    237.35    237.35 1.00000    0.000 1    0.00    0.00    122.32     39.01   -119.64    -22.42 0 0 0 0
     11     189  0.001500  0.060000   0.00000    200.00    200.00    200.00 1.00000    0.000 1    0.00    0.00     60.33     -0.98    -60.28      3.10 0 0 0 0
     12      13  0.003529  0.120000   0.00000    100.00    100.00    100.00 1.00000    0.000 1    0.00    0.00     20.70     -1.12    -20.69      1.62 0 0 0 0
    188      13  0.000109  0.001949   0.02003   1045.73   1045.73   1045.73 1.00000    0.000 1    0.00    0.00    350.91      4.27   -350.78     -4.02 0 0 0 0
     13     190  0.000846  0.017908   0.26779   1060.07   1060.07   1060.07 1.00000    0.000 1    0.00    0.00    371.47      2.40   -370.34     -6.01 0 0 0 0
     14      15  0.036111  0.089040   0.14388    178.87    178.87    178.87 1.00000    0.000 1    0.00    0.00     57.41    -11.91    -56.24      0.34 0 0 0 0
     14     177  0.018818  0.067761   0.11459    229.46    229.46    229.46 1.00000    0.000 1    0.00    0.00     93.46    -21.12    -91.80     15.44 0 0 0 0
     14     190  0.000233  0.011667   0.00000    600.00    600.00    600.00 1.00000    0.000 1    0.00    0.00   -280.27    -13.13    280.45     22.14 0 0 0 0
     15      61  0.004135  0.027504   0.05200    353.36    353.36    353.36 1.00000    0.000 1    0.00    0.00    115.54    -31.96   -114.95     30.75 0 0 0 0
    184      15  0.003431  0.042042   0.08894    541.39    541.39    541.39 1.00000    0.000 1    0.00    0.00    180.44     -1.49   -179.32      6.35 0 0 0 0
     15     191  0.002059  0.070000   0.00000    100.00    100.00    100.00 1.00000    0.000 1    0.00    0.00    -32.77    -22.06     32.80     23.16 0 0 0 0
     16     149  0.014227  0.046950   0.01231    137.68    137.68    137.68 1.00000    0.000 1    0.00    0.00     27.06    -55.46    -26.52     55.97 0 0 0 0
     16     192  0.001000  0.040000   0.00000    200.00    200.00    200.00 1.00000    0.000 1    0.00    0.00    -86.66      8.09     86.74     -5.05 0 0 0 0
     16     193  0.001116  0.048000   0.00000    250.00    250.00    250.00 1.00000    0.000 1    0.00    0.00   -119.73     -4.03    119.89     10.95 0 0 0 0
     17      18  0.056699  0.194499   0.04709    137.68    137.68    137.68 1.00000    0.000 1    0.00    0.00    -53.66     22.95     55.80    -19.94 0 0 0 0
     17     145  0.046728  0.104525   0.02669    107.32    107.32    107.32 1.00000    0.000 1    0.00    0.00     10.43    -15.39    -10.27     13.23 0 0 0 0
     17     194  0.002162  0.080000   0.00000    150.00    150.00    150.00 1.00000    0.000 1    0.00    0.00    -59.67    -36.47     59.78     40.68 0 0 0 0
     19      20  0.000426  0.020000   0.00000    400.00    400.00    400.00 1.00000    0.000 1    0.00    0.00    -77.23    -89.12     77.29     92.04 0 0 0 0
     19      33  0.000700  0.014200   0.00000   1000.00   1000.00   1000.00 1.00000    0.000 1    0.00    0.00   -513.13   -257.70    515.55    306.83 0 0 0 0
     19      96  0.055097  0.129519   0.02990    107.32    107.32    107.32 1.00000    0.000 1    0.00    0.00    -16.69     17.81     17.07    -19.74 0 0 0 0
     19     105  0.000528  0.012761   0.00724    522.03    522.03    522.03 1.00000    0.000 1    0.00    0.00    186.51    106.86   -186.25   -101.34 0 0 0 0
     19     110  0.005086  0.023707   0.00609    173.53    173.53    173.53 1.00000    0.000 1    0.00    0.00     81.92     33.10    -81.50    -31.72 0 0 0 0
     19     118  0.000642  0.013449   0.00755    474.70    474.70    474.70 1.00000    0.000 1    0.00    0.00    295.85    108.53   -295.18    -95.21 0 0 0 0
     19     175  0.056202  0.251624   0.07017    173.53    173.53    173.53 1.00000    0.000 1    0.00    0.00   -100.85     16.46    107.08      4.43 0 0 0 0
     19     195  0.002353  0.080000   0.00000    100.00    100.00    100.00 1.00000    0.000 1    0.00    0.00     30.50     22.08    -30.46    -20.89 0 0 0 0
     19     196  0.003529  0.120000   0.00000    100.00    100.00    100.00 1.00000    0.000 1    0.00    0.00     -6.30     10.37      6.31    -10.19 0 0 0 0
     20      34  0.000900  0.018000   0.00000    600.00    600.00    600.00 1.00000    0.000 1    0.00    0.00   -195.90   -125.47    196.39    135.31 0 0 0 0
     21     129  0.006980  0.035005   0.01005    187.39    187.39    187.39 1.00000    0.000 1    0.00    0.00     84.33     34.93    -83.70    -32.64 0 0 0 0
     21     130  0.007383  0.060698   0.01884    261.01    261.01    261.01 1.00000    0.000 1    0.00    0.00    -82.42    -74.20     83.40     80.42 0 0 0 0
     21     197  0.001441  0.053333   0.00000    150.00    150.00    150.00 1.00000    0.000 1    0.00    0.00    -67.68      0.07     67.75      2.59 0 0 0 0
     21     198  0.001500  0.060000   0.00000    200.00    200.00    200.00 1.00000    0.000 1    0.00    0.00    -95.66     -5.73     95.81     11.74 0 0 0 0
     22      23  0.013985  0.034482   0.05572    178.87    178.87    178.87 1.00000    0.000 1    0.00    0.00   -172.68     30.50    177.16    -24.89 0 0 0 0
     22      35  0.000000  0.014300   0.00000   1950.00   1950.00   1950.00 1.00000    0.000 1    0.00    0.00   -924.00   -200.87    924.00    333.51 0 0 0 0
     22     199  0.000131  0.006667   0.00000   1050.00   1050.00   1050.00 1.00000    0.000 1    0.00    0.00    948.34    126.79   -947.10    -63.48 0 0 0 0
     23      24  0.043009  0.106048   0.17137    178.87    178.87    178.87 1.00000    0.000 1    0.00    0.00     54.04    -49.53    -52.05     37.01 0 0 0 0
     23      36  0.000500  0.027200   0.00000   1000.00   1000.00   1000.00 1.00000    0.000 1    0.00    0.00   -559.10    -32.39    560.67    118.23 0 0 0 0
     23      90  0.006901  0.020365   0.03648    206.75    206.75    206.75 1.00000    0.000 1    0.00    0.00     99.39     31.77    -98.62    -33.09 0 0 0 0
     23      91  0.012793  0.054395   0.09557    262.53    262.53    262.53 1.00000    0.000 1    0.00    0.00    114.76     36.70   -112.84    -37.72 0 0 0 0
     24     177  0.002078  0.014281   0.02528    353.36    353.36    353.36 1.00000    0.000 1    0.00    0.00    175.38     82.21   -174.63    -79.62 0 0 0 0
     24     200  0.000372  0.017500   0.00000    400.00    400.00    400.00 1.00000    0.000 1    0.00    0.00    175.76     94.54   -175.62    -87.84 0 0 0 0
     25      37  0.000600  0.023200   0.00000   1000.00   1000.00   1000.00 1.00000    0.000 1    0.00    0.00    -99.87   -109.95    100.00    115.13 0 0 0 0
     25     133  0.006133  0.048676   0.09258    395.58    395.58    395.58 1.00000    0.000 1    0.00    0.00     92.86     47.16    -92.16    -50.46 0 0 0 0
     25     168  0.018164  0.045274   0.07160    178.87    178.87    178.87 1.00000    0.000 1    0.00    0.00     78.70     25.54    -77.41    -29.19 0 0 0 0
     25     201  0.001261  0.046667   0.00000    150.00    150.00    150.00 1.00000    0.000 1    0.00    0.00   -149.35     11.64    149.64     -1.03 0 0 0 0
     26      42  0.007136  0.049490   0.43522    530.03    530.03    530.03 1.00000    0.000 1    0.00    0.00     33.09    -20.35    -33.02    -24.26 0 0 0 0
     26      43  0.001333  0.009112   0.08245    530.03    530.03    530.03 1.00000    0.000 1    0.00    0.00     13.90     77.86    -13.81    -85.77 0 0 0 0
     26     202  0.010447  0.072454   0.63716    530.03    530.03    530.03 1.00000    0.000 1    0.00    0.00     -5.00     16.38      5.25    -78.73 0 0 0 0
     27     160  0.022175  0.054676   0.08835    178.87    178.87    178.87 1.00000    0.000 1    0.00    0.00     58.26     25.52    -57.25    -31.06 0 0 0 0
     27     202  0.000519  0.023333   0.00000    300.00    300.00    300.00 1.00000    0.000 1    0.00    0.00   -173.02    -63.56    173.21     72.01 0 0 0 0
     28      77  0.066564  0.156472   0.03612    107.32    107.32    107.32 1.00000    0.000 1    0.00    0.00     84.78     -7.60    -80.16     14.84 0 0 0 0
     28      88  0.001156  0.018601   0.00608    418.29    418.29    418.29 1.00000    0.000 1    0.00    0.00    205.64     45.87   -205.14    -38.56 0 0 0 0
     28     203  0.005926  0.160000   0.00000     50.00     50.00     50.00 1.00000    0.000 1    0.00    0.00     49.50      7.00    -49.36     -3.16 0 0 0 0
     28     204  0.003529  0.120000   0.00000    100.00    100.00    100.00 1.00000    0.000 1    0.00    0.00     75.37      3.69    -75.18      2.88 0 0 0 0
     29      38  0.000800  0.015600   0.00000   1200.00   1200.00   1200.00 1.00000    0.000 1    0.00    0.00   -317.88    -21.68    318.67     37.11 0 0 0 0
     29      84  0.009549  0.091679   0.02681    283.00    283.00    283.00 1.00000    0.000 1    0.00    0.00     65.26    -13.96    -64.85     15.13 0 0 0 0
     29     205  0.000209  0.010667   0.00000    750.00    750.00    750.00 1.00000    0.000 1    0.00    0.00    159.48      5.40   -159.43     -2.76 0 0 0 0
     39      43  0.005771  0.040026   0.35199    530.03    530.03    530.03 1.00000    0.000 1    0.00    0.00    198.80    -62.11   -196.42     42.88 0 0 0 0
     40      43  0.003602  0.023140   0.23770    530.03    530.03    530.03 1.00000    0.000 1    0.00    0.00    -90.90    -27.25     91.20      5.00 0 0 0 0
    202      41  0.002711  0.018804   0.16536    530.03    530.03    530.03 1.00000    0.000 1    0.00    0.00    117.21     22.57   -116.80    -35.64 0 0 0 0
     42     167  0.006872  0.049342   0.40438    530.03    530.03    530.03 1.00000    0.000 1    0.00    0.00    -95.95    -15.50     96.57    -22.09 0 0 0 0
     44      55  0.007424  0.027027   0.04470    229.46    229.46    229.46 1.00000    0.000 1    0.00    0.00     76.19     -3.66    -75.77      0.68 0 0 0 0
     44     206  0.000372  0.017500   0.00000    400.00    400.00    400.00 1.00000    0.000 1    0.00    0.00   -171.28    -30.09    171.40     35.30 0 0 0 0
     45      52  0.000887  0.008362   0.07659    652.53    652.53    652.53 1.00000    0.000 1    0.00    0.00   -262.74    -57.68    263.36     55.63 0 0 0 0
    206      45  0.000420  0.002856   0.02611    530.03    530.03    530.03 1.00000    0.000 1    0.00    0.00    111.03     25.72   -110.98    -28.04 0 0 0 0
     45     212  0.001035  0.009761   0.08940    652.53    652.53    652.53 1.00000    0.000 1    0.00    0.00    241.52     39.49   -240.91    -42.87 0 0 0 0
     46      47  0.016826  0.106284   0.02894    212.01    212.01    212.01 1.00000    0.000 1    0.00    0.00     95.50     14.31    -93.81     -6.24 0 0 0 0
     46     207  0.000370  0.017778   0.00000    450.00    450.00    450.00 1.00000    0.000 1    0.00    0.00   -213.95    -51.86    214.15     61.11 0 0 0 0
     47      63  0.038101  0.089565   0.02068    107.32    107.32    107.32 1.00000    0.000 1    0.00    0.00    -15.27      8.99     15.41    -10.46 0 0 0 0
     48     150  0.003523  0.024436   0.21489    530.03    530.03    530.03 1.00000    0.000 1    0.00    0.00    128.61     24.90   -127.93    -39.80 0 0 0 0
    182      48  0.003417  0.023699   0.20841    530.03    530.03    530.03 1.00000    0.000 1    0.00    0.00    259.65     60.68   -257.10    -62.75 0 0 0 0
     49      65  0.001800  0.037712   0.02118    474.70    474.70    474.70 1.00000    0.000 1    0.00    0.00    208.07     77.91   -207.21    -62.10 0 0 0 0
     49     208  0.001000  0.040000   0.00000    200.00    200.00    200.00 1.00000    0.000 1    0.00    0.00    168.04     20.28   -167.76     -9.26 0 0 0 0
     49     209  0.001500  0.060000   0.00000    200.00    200.00    200.00 1.00000    0.000 1    0.00    0.00    143.84     34.20   -143.52    -21.59 0 0 0 0
     50      65  0.005258  0.037515   0.01148    237.35    237.35    237.35 1.00000    0.000 1    0.00    0.00   -116.41    -22.00    117.19     26.43 0 0 0 0
     50     210  0.003529  0.120000   0.00000    100.00    100.00    100.00 1.00000    0.000 1    0.00    0.00     -6.15    -15.10      6.16     15.44 0 0 0 0
     51      68  0.004060  0.037344   0.01192    283.00    283.00    283.00 1.00000    0.000 1    0.00    0.00    -55.05     11.69     55.19    -11.59 0 0 0 0
     51      72  0.000709  0.007194   0.00234    304.04    304.04    304.04 1.00000    0.000 1    0.00    0.00    -55.55    -51.50     55.60     51.71 0 0 0 0
    183      52  0.002047  0.021637   0.20301    707.51    707.51    707.51 1.00000    0.000 1    0.00    0.00   -339.87    -54.63    342.27     59.28 0 0 0 0
    206      52  0.000643  0.006662   0.06506    707.51    707.51    707.51 1.00000    0.000 1    0.00    0.00   -282.42    -61.02    282.94     59.67 0 0 0 0
     53      57  0.006894  0.059124   0.01683    261.01    261.01    261.01 1.00000    0.000 1    0.00    0.00    133.43     34.17   -132.02    -23.68 0 0 0 0
     53      73  0.003976  0.033438   0.00991    261.01    261.01    261.01 1.00000    0.000 1    0.00    0.00    -30.09    -33.93     30.17     33.72 0 0 0 0
     53     211  0.000369  0.018462   0.00000    650.00    650.00    650.00 1.00000    0.000 1    0.00    0.00   -297.05    -62.91    297.42     81.10 0 0 0 0
     55      61  0.034539  0.120369   0.21762    229.46    229.46    229.46 1.00000    0.000 1    0.00    0.00    149.50    -35.51   -141.62     41.18 0 0 0 0
    208      55  0.006202  0.018912   0.03169    206.75    206.75    206.75 1.00000    0.000 1    0.00    0.00    153.60      1.53   -152.17     -0.40 0 0 0 0
     55     212  0.001261  0.046667   0.00000    150.00    150.00    150.00 1.00000    0.000 1    0.00    0.00    -52.15     -5.80     52.19      7.08 0 0 0 0
    185      56  0.000908  0.009601   0.09009    707.51    707.51    707.51 1.00000    0.000 1    0.00    0.00     33.63   -154.29    -33.42    147.28 0 0 0 0
    191      56  0.000301  0.008151   0.12418   1246.50   1246.50   1246.50 1.00000    0.000 1    0.00    0.00   -623.58    -75.46    624.74     94.01 0 0 0 0
     57      60  0.018675  0.042258   0.01054    107.32    107.32    107.32 1.00000    0.000 1    0.00    0.00     48.34     -4.86    -47.84      5.06 0 0 0 0
     58      62  0.002141  0.014851   0.13060    530.03    530.03    530.03 1.00000    0.000 1    0.00    0.00    128.37     36.62   -127.97    -46.65 0 0 0 0
     58      66  0.001447  0.010038   0.08828    530.03    530.03    530.03 1.00000    0.000 1    0.00    0.00    -64.57    -40.26     64.65     32.06 0 0 0 0
    185      58  0.002185  0.015152   0.13324    530.03    530.03    530.03 1.00000    0.000 1    0.00    0.00    231.10     44.90   -229.89    -49.83 0 0 0 0
    191      59  0.000938  0.006385   0.05837    530.03    530.03    530.03 1.00000    0.000 1    0.00    0.00    246.52     47.95   -245.94    -49.94 0 0 0 0
     59     213  0.000907  0.006172   0.05642    530.03    530.03    530.03 1.00000    0.000 1    0.00    0.00    139.03     15.48   -138.85    -19.98 0 0 0 0
     60      63  0.017610  0.040671   0.00973    107.32    107.32    107.32 1.00000    0.000 1    0.00    0.00     -9.97      0.68      9.99     -1.48 0 0 0 0
     60      64  0.005655  0.040347   0.01235    237.35    237.35    237.35 1.00000    0.000 1    0.00    0.00    -60.59    -45.12     60.96     46.65 0 0 0 0
     61     143  0.002057  0.016137   0.03143    395.58    395.58    395.58 1.00000    0.000 1    0.00    0.00     90.67    -80.84    -90.37     80.01 0 0 0 0
    192      61  0.004667  0.025655   0.04713    312.32    312.32    312.32 1.00000    0.000 1    0.00    0.00   -164.03     20.71    165.32    -18.31 0 0 0 0
     61     213  0.000519  0.023333   0.00000    300.00    300.00    300.00 1.00000    0.000 1    0.00    0.00   -138.75    -15.42    138.85     19.98 0 0 0 0
     63      75  0.005417  0.046454   0.01323    261.01    261.01    261.01 1.00000    0.000 1    0.00    0.00   -127.93    -27.58    128.99     35.50 0 0 0 0
     64     214  0.000336  0.017143   0.00000    700.00    700.00    700.00 1.00000    0.000 1    0.00    0.00   -270.50   -111.85    270.81    127.93 0 0 0 0
     66      71  0.001271  0.008811   0.07749    530.03    530.03    530.03 1.00000    0.000 1    0.00    0.00   -168.45    -71.29    168.87     66.41 0 0 0 0
     67      68  0.002882  0.026509   0.00846    283.00    283.00    283.00 1.00000    0.000 1    0.00    0.00   -116.67    -36.23    117.13     39.69 0 0 0 0
     68     215  0.000336  0.017143   0.00000    700.00    700.00    700.00 1.00000    0.000 1    0.00    0.00   -312.12    -77.56    312.48     96.12 0 0 0 0
    189      69  0.001131  0.007735   0.06999    530.03    530.03    530.03 1.00000    0.000 1    0.00    0.00   -170.52    -25.97    170.85     20.92 0 0 0 0
     69     247  0.002929  0.020317   0.17866    530.03    530.03    530.03 1.00000    0.000 1    0.00    0.00    264.93     99.44   -262.62   -101.51 0 0 0 0
     71      76  0.001422  0.009863   0.08674    530.03    530.03    530.03 1.00000    0.000 1    0.00    0.00   -260.58   -101.12    261.67     99.73 0 0 0 0
     72      73  0.000275  0.004586   0.00284    424.03    424.03    424.03 1.00000    0.000 1    0.00    0.00    124.81     66.48   -124.75    -65.80 0 0 0 0
    182      74  0.000498  0.003455   0.03038    530.03    530.03    530.03 1.00000    0.000 1    0.00    0.00    -59.96     61.76     60.00    -64.43 0 0 0 0
    210      74  0.001292  0.011415   0.10343    623.25    623.25    623.25 1.00000    0.000 1    0.00    0.00    363.61     46.76   -361.84    -41.26 0 0 0 0
     74     216  0.000640  0.004357   0.03984    530.03    530.03    530.03 1.00000    0.000 1    0.00    0.00    197.57     72.72   -197.28    -74.54 0 0 0 0
     75     216  0.000638  0.030000   0.00000    400.00    400.00    400.00 1.00000    0.000 1    0.00    0.00   -196.98    -60.62    197.28     74.54 0 0 0 0
    190      76  0.001435  0.009955   0.08755    530.03    530.03    530.03 1.00000    0.000 1    0.00    0.00    -22.19    -75.53     22.26     67.03 0 0 0 0
     76     238  0.003386  0.047034   0.46520    868.25    868.25    868.25 1.00000    0.000 1    0.00    0.00    465.74    102.70   -458.16    -43.41 0 0 0 0
     77      84  0.006198  0.069744   0.01841    304.04    304.04    304.04 1.00000    0.000 1    0.00    0.00    -69.54    -45.90     69.98     49.01 0 0 0 0
     77      89  0.016077  0.099621   0.02821    212.01    212.01    212.01 1.00000    0.000 1    0.00    0.00     92.29     37.30    -90.63    -29.56 0 0 0 0
     77     217  0.005926  0.160000   0.00000     50.00     50.00     50.00 1.00000    0.000 1    0.00    0.00    -10.62     -8.98     10.63      9.30 0 0 0 0
     77     218  0.003529  0.120000   0.00000    100.00    100.00    100.00 1.00000    0.000 1    0.00    0.00    -26.67    -24.82     26.72     26.47 0 0 0 0
     78      79  0.014099  0.097781   0.85988    511.35    511.35    511.35 1.00000    0.000 1    0.00    0.00     19.08    -60.91    -18.99    -29.12 0 0 0 0
     78     167  0.005724  0.038942   0.35603    530.03    530.03    530.03 1.00000    0.000 1    0.00    0.00     87.68    -34.20    -87.25      0.06 0 0 0 0
     79      87  0.008106  0.052075   0.53493    530.03    530.03    530.03 1.00000    0.000 1    0.00    0.00   -130.14    -11.83    131.45    -37.08 0 0 0 0
     80      81  0.005975  0.042908   0.35164    530.03    530.03    530.03 1.00000    0.000 1    0.00    0.00    180.69    -28.50   -178.81      5.55 0 0 0 0
     80      87  0.003558  0.071801   1.18166    696.37    696.37    696.37 1.00000    0.000 1    0.00    0.00    275.13    -73.25   -272.54      0.58 0 0 0 0
     81      82  0.007764  0.053845   0.47351    530.03    530.03    530.03 1.00000    0.000 1    0.00    0.00     48.09    -37.17    -47.91    -10.64 0 0 0 0
     82      83  0.007662  0.053138   0.46730    530.03    530.03    530.03 1.00000    0.000 1    0.00    0.00    131.03    -36.30   -129.76     -3.41 0 0 0 0
     83     219  0.005009  0.034736   0.30546    530.03    530.03    530.03 1.00000    0.000 1    0.00    0.00     32.03    -25.00    -31.97     -6.38 0 0 0 0
     84     219  0.000224  0.011429   0.00000   1050.00   1050.00   1050.00 1.00000    0.000 1    0.00    0.00     87.33     -4.53    -87.32      5.37 0 0 0 0
     85     154  0.017306  0.084819   0.15179    289.22    289.22    289.22 1.00000    0.000 1    0.00    0.00     48.09      3.68    -47.65    -15.85 0 0 0 0
    217      85  0.004299  0.043533   0.08806    471.67    471.67    471.67 1.00000    0.000 1    0.00    0.00    133.34     27.98   -132.53    -28.36 0 0 0 0
     86      88  0.044131  0.145633   0.03817    137.68    137.68    137.68 1.00000    0.000 1    0.00    0.00    -67.89      0.27     70.03      3.00 0 0 0 0
     86     169  0.025279  0.129580   0.03558    187.39    187.39    187.39 1.00000    0.000 1    0.00    0.00     11.62     -5.62    -11.58      2.41 0 0 0 0
     86     220  0.000744  0.032000   0.00000    250.00    250.00    250.00 1.00000    0.000 1    0.00    0.00    -69.58    -25.84     69.63     27.69 0 0 0 0
...